
     RDKit          3D

 12 13  0  0  0  0  0  0  0  0999 V2000
   -3.4685   14.9713   -2.8061 C   0  0  0  0  0  0  0  0  0  0  0  0
   -4.5974   15.0174   -2.0607 N   0  0  0  0  0  0  0  0  0  0  0  0
   -4.5503   14.9728   -0.7131 C   0  0  0  0  0  0  0  0  0  0  0  0
   -5.6574   15.0172    0.0475 N   0  0  0  0  0  0  0  0  0  0  0  0
   -5.6003   14.9718    1.4018 C   0  0  0  0  0  0  0  0  0  0  0  0
   -6.8536   15.0274    2.0877 N   0  0  0  0  0  0  0  0  0  0  0  0
   -4.4235   14.8794    2.0544 N   0  0  0  0  0  0  0  0  0  0  0  0
   -3.2725   14.8309    1.3429 C   0  0  0  0  0  0  0  0  0  0  0  0
   -2.1725   14.7458    1.9115 O   0  0  0  0  0  0  0  0  0  0  0  0
   -3.3402   14.8776   -0.0328 C   0  0  0  0  0  0  0  0  0  0  0  0
   -2.2005   14.8309   -0.7828 N   0  0  0  0  0  0  0  0  0  0  0  0
   -2.2642   14.8766   -2.1320 C   0  0  0  0  0  0  0  0  0  0  0  0
  1  2  2  0
  2  3  1  0
  3  4  1  0
  4  5  2  0
  5  6  1  0
  5  7  1  0
  7  8  1  0
  8  9  2  0
  8 10  1  0
 10 11  1  0
 11 12  2  0
 12  1  1  0
 10  3  2  0
M  END
$$$$
