
     RDKit          3D

 12 13  0  0  0  0  0  0  0  0999 V2000
   -5.3097   15.2620    0.7372 C   0  0  0  0  0  0  0  0  0  0  0  0
   -4.1601   15.0232    1.4107 N   0  0  0  0  0  0  0  0  0  0  0  0
   -2.9794   14.9163    0.7668 C   0  0  0  0  0  0  0  0  0  0  0  0
   -1.8256   14.6796    1.4140 N   0  0  0  0  0  0  0  0  0  0  0  0
   -0.6432   14.5737    0.7582 C   0  0  0  0  0  0  0  0  0  0  0  0
    0.5069   14.3206    1.5692 N   0  0  0  0  0  0  0  0  0  0  0  0
   -0.5675   14.7014   -0.5824 N   0  0  0  0  0  0  0  0  0  0  0  0
   -1.6963   14.9407   -1.2907 C   0  0  0  0  0  0  0  0  0  0  0  0
   -1.6625   15.0636   -2.5253 O   0  0  0  0  0  0  0  0  0  0  0  0
   -2.8933   15.0468   -0.6158 C   0  0  0  0  0  0  0  0  0  0  0  0
   -4.0516   15.2877   -1.2969 N   0  0  0  0  0  0  0  0  0  0  0  0
   -5.2267   15.3921   -0.6375 C   0  0  0  0  0  0  0  0  0  0  0  0
  1  2  2  0
  2  3  1  0
  3  4  1  0
  4  5  2  0
  5  6  1  0
  5  7  1  0
  7  8  1  0
  8  9  2  0
  8 10  1  0
 10 11  1  0
 11 12  2  0
 12  1  1  0
 10  3  2  0
M  END
$$$$
