
     RDKit          3D

 12 13  0  0  0  0  0  0  0  0999 V2000
    1.2016   13.5928   -3.0512 C   0  0  0  0  0  0  0  0  0  0  0  0
    0.0472   13.0570   -2.5901 N   0  0  0  0  0  0  0  0  0  0  0  0
   -1.1475   13.6162   -2.8729 C   0  0  0  0  0  0  0  0  0  0  0  0
   -2.3063   13.1024   -2.4263 N   0  0  0  0  0  0  0  0  0  0  0  0
   -3.5029   13.6715   -2.7158 C   0  0  0  0  0  0  0  0  0  0  0  0
   -4.6568   13.0216   -2.1767 N   0  0  0  0  0  0  0  0  0  0  0  0
   -3.5884   14.7865   -3.4698 N   0  0  0  0  0  0  0  0  0  0  0  0
   -2.4552   15.3516   -3.9492 C   0  0  0  0  0  0  0  0  0  0  0  0
   -2.4978   16.3777   -4.6461 O   0  0  0  0  0  0  0  0  0  0  0  0
   -1.2439   14.7664   -3.6500 C   0  0  0  0  0  0  0  0  0  0  0  0
   -0.0808   15.3082   -4.1160 N   0  0  0  0  0  0  0  0  0  0  0  0
    1.1084   14.7363   -3.8240 C   0  0  0  0  0  0  0  0  0  0  0  0
  1  2  2  0
  2  3  1  0
  3  4  1  0
  4  5  2  0
  5  6  1  0
  5  7  1  0
  7  8  1  0
  8  9  2  0
  8 10  1  0
 10 11  1  0
 11 12  2  0
 12  1  1  0
 10  3  2  0
M  END
$$$$
