
     RDKit          3D

 12 13  0  0  0  0  0  0  0  0999 V2000
   -2.4600   21.1358   -6.7428 C   0  0  0  0  0  0  0  0  0  0  0  0
   -2.6338   19.9912   -6.0414 N   0  0  0  0  0  0  0  0  0  0  0  0
   -1.6087   19.1428   -5.8186 C   0  0  0  0  0  0  0  0  0  0  0  0
   -1.7572   18.0011   -5.1254 N   0  0  0  0  0  0  0  0  0  0  0  0
   -0.7207   17.1542   -4.9064 C   0  0  0  0  0  0  0  0  0  0  0  0
   -1.0181   15.9755   -4.1537 N   0  0  0  0  0  0  0  0  0  0  0  0
    0.5158   17.4181   -5.3762 N   0  0  0  0  0  0  0  0  0  0  0  0
    0.7286   18.5536   -6.0824 C   0  0  0  0  0  0  0  0  0  0  0  0
    1.8539   18.8272   -6.5290 O   0  0  0  0  0  0  0  0  0  0  0  0
   -0.3304   19.4082   -6.3000 C   0  0  0  0  0  0  0  0  0  0  0  0
   -0.1532   20.5621   -7.0076 N   0  0  0  0  0  0  0  0  0  0  0  0
   -1.1901   21.4018   -7.2224 C   0  0  0  0  0  0  0  0  0  0  0  0
  1  2  2  0
  2  3  1  0
  3  4  1  0
  4  5  2  0
  5  6  1  0
  5  7  1  0
  7  8  1  0
  8  9  2  0
  8 10  1  0
 10 11  1  0
 11 12  2  0
 12  1  1  0
 10  3  2  0
M  END
$$$$
